obj01
     RDKit          3D

 43 44  0  0  0  0  0  0  0  0999 V2000
  -12.2820   14.9940   67.1230 N   0  0  0  0  0  0  0  0  0  0  0  0
  -11.3860   11.5310   63.2320 N   0  0  0  0  0  0  0  0  0  0  0  0
   -9.9430   17.7850   67.5720 O   0  0  0  0  0  0  0  0  0  0  0  0
  -13.5590   12.2600   63.4950 O   0  0  0  0  0  0  0  0  0  0  0  0
  -11.8320   15.4910   65.8780 C   0  0  2  0  0  0  0  0  0  0  0  0
  -12.4220   16.8900   65.6990 C   0  0  0  0  0  0  0  0  0  0  0  0
  -11.6670   17.9480   65.9020 C   0  0  0  0  0  0  0  0  0  0  0  0
  -10.2080   17.8200   66.3470 C   0  0  0  0  0  0  0  0  0  0  0  0
  -12.4370   14.5940   64.8060 C   0  0  0  0  0  0  0  0  0  0  0  0
  -11.8350   13.1990   64.8380 C   0  0  2  0  0  0  0  0  0  0  0  0
  -10.3680   13.2410   64.5720 C   0  0  0  0  0  0  0  0  0  0  0  0
  -10.1100   11.8920   63.8850 C   0  0  0  0  0  0  0  0  0  0  0  0
  -12.4280   12.3060   63.7870 C   0  0  0  0  0  0  0  0  0  0  0  0
   -7.9010   17.6490   66.6960 C   0  0  0  0  0  0  0  0  0  0  0  0
   -8.9110   17.8490   65.7030 O   0  0  0  0  0  0  0  0  0  0  0  0
   -5.8100   18.9970   67.2590 C   0  0  0  0  0  0  0  0  0  0  0  0
   -5.1380   20.2050   67.4390 C   0  0  0  0  0  0  0  0  0  0  0  0
   -5.8150   21.4140   67.2570 C   0  0  0  0  0  0  0  0  0  0  0  0
   -7.1560   21.4060   66.8980 C   0  0  0  0  0  0  0  0  0  0  0  0
   -7.8310   20.2010   66.7150 C   0  0  0  0  0  0  0  0  0  0  0  0
   -7.1530   18.9940   66.8960 C   0  0  0  0  0  0  0  0  0  0  0  0
  -11.8174   15.5071   67.8857 H   0  0  0  0  0  0  0  0  0  0  0  0
  -13.3016   15.1209   67.1951 H   0  0  0  0  0  0  0  0  0  0  0  0
  -11.4975   10.8258   62.4896 H   0  0  0  0  0  0  0  0  0  0  0  0
  -10.7339   15.5163   65.8186 H   0  0  0  0  0  0  0  0  0  0  0  0
  -12.7859   16.9522   64.6628 H   0  0  0  0  0  0  0  0  0  0  0  0
  -13.1732   16.9548   66.4999 H   0  0  0  0  0  0  0  0  0  0  0  0
  -11.6537   18.5054   64.9538 H   0  0  0  0  0  0  0  0  0  0  0  0
  -12.1409   18.4096   66.7808 H   0  0  0  0  0  0  0  0  0  0  0  0
  -13.5215   14.5186   64.9740 H   0  0  0  0  0  0  0  0  0  0  0  0
  -12.2214   15.0391   63.8234 H   0  0  0  0  0  0  0  0  0  0  0  0
  -12.0500   12.8066   65.8429 H   0  0  0  0  0  0  0  0  0  0  0  0
  -10.1091   14.0796   63.9089 H   0  0  0  0  0  0  0  0  0  0  0  0
   -9.7643   13.3911   65.4792 H   0  0  0  0  0  0  0  0  0  0  0  0
   -9.3092   11.9884   63.1371 H   0  0  0  0  0  0  0  0  0  0  0  0
   -9.7872   11.1236   64.6029 H   0  0  0  0  0  0  0  0  0  0  0  0
   -8.3651   17.3354   67.6427 H   0  0  0  0  0  0  0  0  0  0  0  0
   -7.1991   16.8652   66.3751 H   0  0  0  0  0  0  0  0  0  0  0  0
   -5.2779   18.0453   67.4041 H   0  0  0  0  0  0  0  0  0  0  0  0
   -4.0756   20.2066   67.7241 H   0  0  0  0  0  0  0  0  0  0  0  0
   -5.2871   22.3687   67.3977 H   0  0  0  0  0  0  0  0  0  0  0  0
   -7.6894   22.3577   66.7570 H   0  0  0  0  0  0  0  0  0  0  0  0
   -8.8932   20.2006   66.4292 H   0  0  0  0  0  0  0  0  0  0  0  0
  2 13  1  0
  1  5  1  0
  5  6  1  0
  5  9  1  0
  6  7  1  0
  7  8  1  0
  3  8  2  0
  8 15  1  0
  9 10  1  0
 10 11  1  0
 10 13  1  0
 11 12  1  0
  2 12  1  0
  4 13  2  0
 14 15  1  0
 14 21  1  0
 16 17  2  0
 16 21  1  0
 17 18  1  0
 18 19  2  0
 19 20  1  0
 20 21  2  0
  1 22  1  0
  1 23  1  0
  2 24  1  0
  5 25  1  1
  6 26  1  0
  6 27  1  0
  7 28  1  0
  7 29  1  0
  9 30  1  0
  9 31  1  0
 10 32  1  1
 11 33  1  0
 11 34  1  0
 12 35  1  0
 12 36  1  0
 14 37  1  0
 14 38  1  0
 16 39  1  0
 17 40  1  0
 18 41  1  0
 19 42  1  0
 20 43  1  0
M  END
$$$$
