obj01
  PyMOL2.4          3D                             0

 21 22  0  0  0  0  0  0  0  0999 V2000
  -12.2820   14.9940   67.1230 N   0  0  0  0  0  0  0  0  0  0  0  0
  -11.3860   11.5310   63.2320 N   0  0  0  0  0  0  0  0  0  0  0  0
   -9.9430   17.7850   67.5720 O   0  0  0  0  0  0  0  0  0  0  0  0
  -13.5590   12.2600   63.4950 O   0  0  0  0  0  0  0  0  0  0  0  0
  -11.8320   15.4910   65.8780 C   0  0  0  0  0  0  0  0  0  0  0  0
  -12.4220   16.8900   65.6990 C   0  0  0  0  0  0  0  0  0  0  0  0
  -11.6670   17.9480   65.9020 C   0  0  0  0  0  0  0  0  0  0  0  0
  -10.2080   17.8200   66.3470 C   0  0  0  0  0  0  0  0  0  0  0  0
  -12.4370   14.5940   64.8060 C   0  0  0  0  0  0  0  0  0  0  0  0
  -11.8350   13.1990   64.8380 C   0  0  0  0  0  0  0  0  0  0  0  0
  -10.3680   13.2410   64.5720 C   0  0  0  0  0  0  0  0  0  0  0  0
  -10.1100   11.8920   63.8850 C   0  0  0  0  0  0  0  0  0  0  0  0
  -12.4280   12.3060   63.7870 C   0  0  0  0  0  0  0  0  0  0  0  0
   -7.9010   17.6490   66.6960 C   0  0  0  0  0  0  0  0  0  0  0  0
   -8.9110   17.8490   65.7030 O   0  0  0  0  0  0  0  0  0  0  0  0
   -5.8100   18.9970   67.2590 C   0  0  0  0  0  0  0  0  0  0  0  0
   -5.1380   20.2050   67.4390 C   0  0  0  0  0  0  0  0  0  0  0  0
   -5.8150   21.4140   67.2570 C   0  0  0  0  0  0  0  0  0  0  0  0
   -7.1560   21.4060   66.8980 C   0  0  0  0  0  0  0  0  0  0  0  0
   -7.8310   20.2010   66.7150 C   0  0  0  0  0  0  0  0  0  0  0  0
   -7.1530   18.9940   66.8960 C   0  0  0  0  0  0  0  0  0  0  0  0
  2 13  1  0  0  0  0
  1  5  1  0  0  0  0
  5  6  1  0  0  0  0
  5  9  1  0  0  0  0
  6  7  1  0  0  0  0
  7  8  1  0  0  0  0
  3  8  2  0  0  0  0
  8 15  1  0  0  0  0
  9 10  1  0  0  0  0
 10 11  1  0  0  0  0
 10 13  1  0  0  0  0
 11 12  1  0  0  0  0
  2 12  1  0  0  0  0
  4 13  2  0  0  0  0
 14 15  1  0  0  0  0
 14 21  1  0  0  0  0
 16 17  4  0  0  0  0
 16 21  4  0  0  0  0
 17 18  4  0  0  0  0
 18 19  4  0  0  0  0
 19 20  4  0  0  0  0
 20 21  4  0  0  0  0
M  END
$$$$
